obj11
  PyMOL184          3D                             0

  8  7  0  0  0  0  0  0  0  0999 V2000
   13.2364   35.5546    7.0806 C   0  0  0  0  0  0  0  0  0  0  0  0
   11.9957   35.2754    6.3178 C   0  0  0  0  0  0  0  0  0  0  0  0
   14.0778   33.9500    7.7927 Br  0  0  0  0  0  0  0  0  0  0  0  0
   10.2271   35.8339    8.2933 Br  0  0  0  0  0  0  0  0  0  0  0  0
   13.9880   36.0925    6.4633 H   0  0  0  0  0  0  0  0  0  0  0  0
   13.0336   36.2240    7.9453 H   0  0  0  0  0  0  0  0  0  0  0  0
   11.4871   34.3109    6.3985 H   0  0  0  0  0  0  0  0  0  0  0  0
   11.4448   36.1363    5.9087 H   0  0  0  0  0  0  0  0  0  0  0  0
  1  2  1  0  0  0  0
  1  5  1  0  0  0  0
  1  6  1  0  0  0  0
  2  7  1  0  0  0  0
  2  8  1  0  0  0  0
  1  3  1  0  0  0  0
  2  4  1  0  0  0  0
M  END
