LN1.pdb
 OpenBabel05091821423D

  8  7  0  0  0  0  0  0  0  0999 V2000
   13.0160   34.9400    7.3390 C   0  0  0  0  0  0  0  0  0  0  0  0
   11.8220   34.8780    6.4630 C   0  0  0  0  0  0  0  0  0  0  0  0
   13.8880   33.2230    7.6340 Br  0  0  0  0  0  0  0  0  0  0  0  0
   11.1210   37.1100    8.7820 Br  0  0  0  0  0  0  0  0  0  0  0  0
   13.7700   35.6790    7.0090 H   0  0  0  0  0  0  0  0  0  0  0  0
   12.6900   35.3140    8.3600 H   0  0  0  0  0  0  0  0  0  0  0  0
   11.2340   35.8150    6.3890 H   0  0  0  0  0  0  0  0  0  0  0  0
   11.2200   33.9650    6.4820 H   0  0  0  0  0  0  0  0  0  0  0  0
  1  2  1  0  0  0  0
  1  3  1  0  0  0  0
  1  5  1  0  0  0  0
  1  6  1  0  0  0  0
  2  7  1  0  0  0  0
  2  8  1  0  0  0  0
  2  4  1  0  0  0  0
M  END
